
#######################################################################
#
#                 Cambridge Crystallographic Data Centre
#                                CCDC 
#
#######################################################################
#
# If this CIF has been generated from an entry in the Cambridge 
# Structural Database, then it will include bibliographic, chemical, 
# crystal, experimental, refinement or atomic coordinate data resulting 
# from the CCDC's data processing and validation procedures.
#
#######################################################################

data_shelx_CCDC4
_symmetry_cell_setting           triclinic
_symmetry_space_group_name_H-M   'P -1'
_symmetry_Int_Tables_number      2
_space_group_name_Hall           '-P 1'
loop_
_symmetry_equiv_pos_site_id
_symmetry_equiv_pos_as_xyz
1 x,y,z
2 -x,-y,-z
_cell_length_a                   5.8531(9)
_cell_length_b                   7.5224(12)
_cell_length_c                   13.598(2)
_cell_angle_alpha                94.526(7)
_cell_angle_beta                 93.369(7)
_cell_angle_gamma                99.310(7)
_cell_volume                     587.423
loop_
_atom_site_label
_atom_site_type_symbol
_atom_site_fract_x
_atom_site_fract_y
_atom_site_fract_z
Br1 Br 0.17525(5) 0.26466(4) 0.05187(2)
O1 O 0.8604(3) 0.4204(3) 0.40776(13)
H1 H 0.804196 0.378924 0.456633
N1 N 0.1545(4) 0.0687(3) 0.70071(17)
N2 N 0.5268(3) 0.2652(2) 0.51167(14)
C1 C 0.7016(4) 0.3836(3) 0.32996(18)
C2 C 0.7672(4) 0.4324(3) 0.23842(19)
H2 H 0.918295 0.489663 0.232415
C3 C 0.6135(4) 0.3979(3) 0.15630(19)
H3 H 0.659698 0.430814 0.095074
C4 C 0.3890(4) 0.3135(3) 0.16593(17)
C5 C 0.3185(4) 0.2635(3) 0.25525(17)
H5 H 0.166666 0.206772 0.260138
C6 C 0.4734(4) 0.2973(3) 0.33906(17)
C7 C 0.3954(4) 0.2406(3) 0.43243(17)
H7 H 0.242565 0.183679 0.434493
C8 C 0.4476(4) 0.2056(3) 0.60205(16)
C9 C 0.2215(4) 0.1290(4) 0.6159(2)
H9 H 0.110547 0.119189 0.563089
C10 C 0.3128(4) 0.0887(3) 0.77614(19)
H10 H 0.267424 0.044950 0.835321
C11 C 0.5419(4) 0.1705(3) 0.77274(18)
C12 C 0.6073(4) 0.2265(3) 0.68275(17)
H12 H 0.760403 0.278626 0.676388
C13 C 0.7090(5) 0.1940(4) 0.8626(2)
H13A H 0.852238 0.158045 0.844834
H13B H 0.643906 0.120453 0.911872
H13C H 0.737709 0.318711 0.888454
Br1 Br 0.17525(5) 1.26466(4) 0.05187(2)
O1 O 0.8604(3) 1.4204(3) 0.40776(13)
H1 H 0.804196 1.378924 0.456633
N1 N 0.1545(4) 1.0687(3) 0.70071(17)
N2 N 0.5268(3) 1.2652(2) 0.51167(14)
C1 C 0.7016(4) 1.3836(3) 0.32996(18)
C2 C 0.7672(4) 1.4324(3) 0.23842(19)
H2 H 0.918295 1.489663 0.232415
C3 C 0.6135(4) 1.3979(3) 0.15630(19)
H3 H 0.659698 1.430814 0.095074
C4 C 0.3890(4) 1.3135(3) 0.16593(17)
C5 C 0.3185(4) 1.2635(3) 0.25525(17)
H5 H 0.166666 1.206772 0.260138
C6 C 0.4734(4) 1.2973(3) 0.33906(17)
C7 C 0.3954(4) 1.2406(3) 0.43243(17)
H7 H 0.242565 1.183679 0.434493
C8 C 0.4476(4) 1.2056(3) 0.60205(16)
C9 C 0.2215(4) 1.1290(4) 0.6159(2)
H9 H 0.110547 1.119189 0.563089
C10 C 0.3128(4) 1.0887(3) 0.77614(19)
H10 H 0.267424 1.044950 0.835321
C11 C 0.5419(4) 1.1705(3) 0.77274(18)
C12 C 0.6073(4) 1.2265(3) 0.68275(17)
H12 H 0.760403 1.278626 0.676388
C13 C 0.7090(5) 1.1940(4) 0.8626(2)
H13A H 0.852238 1.158045 0.844834
H13B H 0.643906 1.120453 0.911872
H13C H 0.737709 1.318711 0.888454
Br1 Br 0.82475(5) 0.73534(4) 0.94813(2)
O1 O 0.1396(3) 0.5796(3) 0.59224(13)
H1 H 0.195804 0.621076 0.543367
N1 N 0.8455(4) 0.9313(3) 0.29929(17)
N2 N 0.4732(3) 0.7348(2) 0.48833(14)
C1 C 0.2984(4) 0.6164(3) 0.67004(18)
C2 C 0.2328(4) 0.5676(3) 0.76158(19)
H2 H 0.081705 0.510337 0.767585
C3 C 0.3865(4) 0.6021(3) 0.84370(19)
H3 H 0.340302 0.569186 0.904926
C4 C 0.6110(4) 0.6865(3) 0.83407(17)
C5 C 0.6815(4) 0.7365(3) 0.74475(17)
H5 H 0.833334 0.793228 0.739862
C6 C 0.5266(4) 0.7027(3) 0.66094(17)
C7 C 0.6046(4) 0.7594(3) 0.56757(17)
H7 H 0.757435 0.816321 0.565507
C8 C 0.5524(4) 0.7944(3) 0.39795(16)
C9 C 0.7785(4) 0.8710(4) 0.3841(2)
H9 H 0.889453 0.880811 0.436911
C10 C 0.6872(4) 0.9113(3) 0.22386(19)
H10 H 0.732576 0.955050 0.164679
C11 C 0.4581(4) 0.8295(3) 0.22726(18)
C12 C 0.3927(4) 0.7735(3) 0.31725(17)
H12 H 0.239597 0.721374 0.323612
C13 C 0.2910(5) 0.8060(4) 0.1374(2)
H13A H 0.147762 0.841955 0.155166
H13B H 0.356094 0.879547 0.088128
H13C H 0.262291 0.681289 0.111546
Br1 Br 0.82475(5) 0.73534(4) 1.94813(2)
O1 O 0.1396(3) 0.5796(3) 1.59224(13)
H1 H 0.195804 0.621076 1.543367
N1 N 0.8455(4) 0.9313(3) 1.29929(17)
N2 N 0.4732(3) 0.7348(2) 1.48833(14)
C1 C 0.2984(4) 0.6164(3) 1.67004(18)
C2 C 0.2328(4) 0.5676(3) 1.76158(19)
H2 H 0.081705 0.510337 1.767585
C3 C 0.3865(4) 0.6021(3) 1.84370(19)
H3 H 0.340302 0.569186 1.904926
C4 C 0.6110(4) 0.6865(3) 1.83407(17)
C5 C 0.6815(4) 0.7365(3) 1.74475(17)
H5 H 0.833334 0.793228 1.739862
C6 C 0.5266(4) 0.7027(3) 1.66094(17)
C7 C 0.6046(4) 0.7594(3) 1.56757(17)
H7 H 0.757435 0.816321 1.565507
C8 C 0.5524(4) 0.7944(3) 1.39795(16)
C9 C 0.7785(4) 0.8710(4) 1.3841(2)
H9 H 0.889453 0.880811 1.436911
C10 C 0.6872(4) 0.9113(3) 1.22386(19)
H10 H 0.732576 0.955050 1.164679
C11 C 0.4581(4) 0.8295(3) 1.22726(18)
C12 C 0.3927(4) 0.7735(3) 1.31725(17)
H12 H 0.239597 0.721374 1.323612
C13 C 0.2910(5) 0.8060(4) 1.1374(2)
H13A H 0.147762 0.841955 1.155166
H13B H 0.356094 0.879547 1.088128
H13C H 0.262291 0.681289 1.111546
Br1 Br 1.82475(5) 0.73534(4) 0.94813(2)
O1 O 1.1396(3) 0.5796(3) 0.59224(13)
H1 H 1.195804 0.621076 0.543367
N1 N 1.8455(4) 0.9313(3) 0.29929(17)
N2 N 1.4732(3) 0.7348(2) 0.48833(14)
C1 C 1.2984(4) 0.6164(3) 0.67004(18)
C2 C 1.2328(4) 0.5676(3) 0.76158(19)
H2 H 1.081705 0.510337 0.767585
C3 C 1.3865(4) 0.6021(3) 0.84370(19)
H3 H 1.340302 0.569186 0.904926
C4 C 1.6110(4) 0.6865(3) 0.83407(17)
C5 C 1.6815(4) 0.7365(3) 0.74475(17)
H5 H 1.833334 0.793228 0.739862
C6 C 1.5266(4) 0.7027(3) 0.66094(17)
C7 C 1.6046(4) 0.7594(3) 0.56757(17)
H7 H 1.757435 0.816321 0.565507
C8 C 1.5524(4) 0.7944(3) 0.39795(16)
C9 C 1.7785(4) 0.8710(4) 0.3841(2)
H9 H 1.889453 0.880811 0.436911
C10 C 1.6872(4) 0.9113(3) 0.22386(19)
H10 H 1.732576 0.955050 0.164679
C11 C 1.4581(4) 0.8295(3) 0.22726(18)
C12 C 1.3927(4) 0.7735(3) 0.31725(17)
H12 H 1.239597 0.721374 0.323612
C13 C 1.2910(5) 0.8060(4) 0.1374(2)
H13A H 1.147762 0.841955 0.155166
H13B H 1.356094 0.879547 0.088128
H13C H 1.262291 0.681289 0.111546
Br1 Br 1.82475(5) 0.73534(4) 1.94813(2)
O1 O 1.1396(3) 0.5796(3) 1.59224(13)
H1 H 1.195804 0.621076 1.543367
N1 N 1.8455(4) 0.9313(3) 1.29929(17)
N2 N 1.4732(3) 0.7348(2) 1.48833(14)
C1 C 1.2984(4) 0.6164(3) 1.67004(18)
C2 C 1.2328(4) 0.5676(3) 1.76158(19)
H2 H 1.081705 0.510337 1.767585
C3 C 1.3865(4) 0.6021(3) 1.84370(19)
H3 H 1.340302 0.569186 1.904926
C4 C 1.6110(4) 0.6865(3) 1.83407(17)
C5 C 1.6815(4) 0.7365(3) 1.74475(17)
H5 H 1.833334 0.793228 1.739862
C6 C 1.5266(4) 0.7027(3) 1.66094(17)
C7 C 1.6046(4) 0.7594(3) 1.56757(17)
H7 H 1.757435 0.816321 1.565507
C8 C 1.5524(4) 0.7944(3) 1.39795(16)
C9 C 1.7785(4) 0.8710(4) 1.3841(2)
H9 H 1.889453 0.880811 1.436911
C10 C 1.6872(4) 0.9113(3) 1.22386(19)
H10 H 1.732576 0.955050 1.164679
C11 C 1.4581(4) 0.8295(3) 1.22726(18)
C12 C 1.3927(4) 0.7735(3) 1.31725(17)
H12 H 1.239597 0.721374 1.323612
C13 C 1.2910(5) 0.8060(4) 1.1374(2)
H13A H 1.147762 0.841955 1.155166
H13B H 1.356094 0.879547 1.088128
H13C H 1.262291 0.681289 1.111546

#END
