
#######################################################################
#
#                 Cambridge Crystallographic Data Centre
#                                CCDC 
#
#######################################################################
#
# If this CIF has been generated from an entry in the Cambridge 
# Structural Database, then it will include bibliographic, chemical, 
# crystal, experimental, refinement or atomic coordinate data resulting 
# from the CCDC's data processing and validation procedures.
#
#######################################################################

data_shelx_CCDC5
_symmetry_cell_setting           triclinic
_symmetry_space_group_name_H-M   'P -1'
_symmetry_Int_Tables_number      2
_space_group_name_Hall           '-P 1'
loop_
_symmetry_equiv_pos_site_id
_symmetry_equiv_pos_as_xyz
1 x,y,z
2 -x,-y,-z
_cell_length_a                   5.8388(13)
_cell_length_b                   7.4762(17)
_cell_length_c                   13.369(3)
_cell_angle_alpha                93.793(7)
_cell_angle_beta                 93.656(7)
_cell_angle_gamma                99.044(7)
_cell_volume                     573.435
loop_
_atom_site_label
_atom_site_type_symbol
_atom_site_fract_x
_atom_site_fract_y
_atom_site_fract_z
Cl1 Cl 0.18521(8) 0.27542(7) 0.05649(3)
O1 O 0.8608(2) 0.41991(19) 0.40732(9)
H1 H 0.804919 0.378879 0.457398
N1 N 0.5292(2) 0.26326(17) 0.51394(9)
N2 N 0.1575(3) 0.0665(2) 0.70734(11)
C1 C 0.7006(3) 0.3838(2) 0.32840(11)
C2 C 0.7652(3) 0.4340(2) 0.23486(12)
H2 H 0.916588 0.490345 0.228098
C3 C 0.6081(3) 0.4014(2) 0.15200(12)
H3 H 0.652782 0.435772 0.089600
C4 C 0.3838(3) 0.3174(2) 0.16215(11)
C5 C 0.3147(3) 0.2653(2) 0.25338(11)
H5 H 0.163090 0.208215 0.258849
C6 C 0.4728(2) 0.29819(19) 0.33835(11)
C7 C 0.3956(3) 0.2401(2) 0.43338(11)
H7 H 0.242506 0.183723 0.435828
C8 C 0.4506(2) 0.20297(19) 0.60603(11)
C9 C 0.2242(3) 0.1265(3) 0.62046(12)
H9 H 0.112869 0.116403 0.566560
C10 C 0.3176(3) 0.0864(2) 0.78429(12)
H10 H 0.272409 0.043804 0.844995
C11 C 0.5464(3) 0.1660(2) 0.78021(11)
C12 C 0.6116(3) 0.2233(2) 0.68807(11)
H12 H 0.764637 0.275781 0.681432
C13 C 0.7152(3) 0.1887(3) 0.87148(13)
H13A H 0.643232 0.127135 0.925017
H13B H 0.759314 0.315566 0.892094
H13C H 0.850836 0.137902 0.855679
Cl1 Cl 0.18521(8) 1.27542(7) 0.05649(3)
O1 O 0.8608(2) 1.41991(19) 0.40732(9)
H1 H 0.804919 1.378879 0.457398
N1 N 0.5292(2) 1.26326(17) 0.51394(9)
N2 N 0.1575(3) 1.0665(2) 0.70734(11)
C1 C 0.7006(3) 1.3838(2) 0.32840(11)
C2 C 0.7652(3) 1.4340(2) 0.23486(12)
H2 H 0.916588 1.490345 0.228098
C3 C 0.6081(3) 1.4014(2) 0.15200(12)
H3 H 0.652782 1.435772 0.089600
C4 C 0.3838(3) 1.3174(2) 0.16215(11)
C5 C 0.3147(3) 1.2653(2) 0.25338(11)
H5 H 0.163090 1.208215 0.258849
C6 C 0.4728(2) 1.29819(19) 0.33835(11)
C7 C 0.3956(3) 1.2401(2) 0.43338(11)
H7 H 0.242506 1.183723 0.435828
C8 C 0.4506(2) 1.20297(19) 0.60603(11)
C9 C 0.2242(3) 1.1265(3) 0.62046(12)
H9 H 0.112869 1.116403 0.566560
C10 C 0.3176(3) 1.0864(2) 0.78429(12)
H10 H 0.272409 1.043804 0.844995
C11 C 0.5464(3) 1.1660(2) 0.78021(11)
C12 C 0.6116(3) 1.2233(2) 0.68807(11)
H12 H 0.764637 1.275781 0.681432
C13 C 0.7152(3) 1.1887(3) 0.87148(13)
H13A H 0.643232 1.127135 0.925017
H13B H 0.759314 1.315566 0.892094
H13C H 0.850836 1.137902 0.855679
Cl1 Cl 0.81479(8) 0.72458(7) 0.94351(3)
O1 O 0.1392(2) 0.58009(19) 0.59268(9)
H1 H 0.195081 0.621121 0.542602
N1 N 0.4708(2) 0.73674(17) 0.48606(9)
N2 N 0.8425(3) 0.9335(2) 0.29266(11)
C1 C 0.2994(3) 0.6162(2) 0.67160(11)
C2 C 0.2348(3) 0.5660(2) 0.76514(12)
H2 H 0.083412 0.509655 0.771902
C3 C 0.3919(3) 0.5986(2) 0.84800(12)
H3 H 0.347218 0.564228 0.910400
C4 C 0.6162(3) 0.6826(2) 0.83785(11)
C5 C 0.6853(3) 0.7347(2) 0.74662(11)
H5 H 0.836910 0.791785 0.741151
C6 C 0.5272(2) 0.70181(19) 0.66165(11)
C7 C 0.6044(3) 0.7599(2) 0.56662(11)
H7 H 0.757494 0.816277 0.564172
C8 C 0.5494(2) 0.79703(19) 0.39397(11)
C9 C 0.7758(3) 0.8735(3) 0.37954(12)
H9 H 0.887131 0.883597 0.433440
C10 C 0.6824(3) 0.9136(2) 0.21571(12)
H10 H 0.727591 0.956196 0.155005
C11 C 0.4536(3) 0.8340(2) 0.21979(11)
C12 C 0.3884(3) 0.7767(2) 0.31193(11)
H12 H 0.235363 0.724219 0.318568
C13 C 0.2848(3) 0.8113(3) 0.12852(13)
H13A H 0.356768 0.872865 0.074983
H13B H 0.240686 0.684434 0.107906
H13C H 0.149164 0.862098 0.144321
Cl1 Cl 0.81479(8) 0.72458(7) 1.94351(3)
O1 O 0.1392(2) 0.58009(19) 1.59268(9)
H1 H 0.195081 0.621121 1.542602
N1 N 0.4708(2) 0.73674(17) 1.48606(9)
N2 N 0.8425(3) 0.9335(2) 1.29266(11)
C1 C 0.2994(3) 0.6162(2) 1.67160(11)
C2 C 0.2348(3) 0.5660(2) 1.76514(12)
H2 H 0.083412 0.509655 1.771902
C3 C 0.3919(3) 0.5986(2) 1.84800(12)
H3 H 0.347218 0.564228 1.910400
C4 C 0.6162(3) 0.6826(2) 1.83785(11)
C5 C 0.6853(3) 0.7347(2) 1.74662(11)
H5 H 0.836910 0.791785 1.741151
C6 C 0.5272(2) 0.70181(19) 1.66165(11)
C7 C 0.6044(3) 0.7599(2) 1.56662(11)
H7 H 0.757494 0.816277 1.564172
C8 C 0.5494(2) 0.79703(19) 1.39397(11)
C9 C 0.7758(3) 0.8735(3) 1.37954(12)
H9 H 0.887131 0.883597 1.433440
C10 C 0.6824(3) 0.9136(2) 1.21571(12)
H10 H 0.727591 0.956196 1.155005
C11 C 0.4536(3) 0.8340(2) 1.21979(11)
C12 C 0.3884(3) 0.7767(2) 1.31193(11)
H12 H 0.235363 0.724219 1.318568
C13 C 0.2848(3) 0.8113(3) 1.12852(13)
H13A H 0.356768 0.872865 1.074983
H13B H 0.240686 0.684434 1.107906
H13C H 0.149164 0.862098 1.144321
Cl1 Cl 1.81479(8) 0.72458(7) 0.94351(3)
O1 O 1.1392(2) 0.58009(19) 0.59268(9)
H1 H 1.195081 0.621121 0.542602
N1 N 1.4708(2) 0.73674(17) 0.48606(9)
N2 N 1.8425(3) 0.9335(2) 0.29266(11)
C1 C 1.2994(3) 0.6162(2) 0.67160(11)
C2 C 1.2348(3) 0.5660(2) 0.76514(12)
H2 H 1.083412 0.509655 0.771902
C3 C 1.3919(3) 0.5986(2) 0.84800(12)
H3 H 1.347218 0.564228 0.910400
C4 C 1.6162(3) 0.6826(2) 0.83785(11)
C5 C 1.6853(3) 0.7347(2) 0.74662(11)
H5 H 1.836910 0.791785 0.741151
C6 C 1.5272(2) 0.70181(19) 0.66165(11)
C7 C 1.6044(3) 0.7599(2) 0.56662(11)
H7 H 1.757494 0.816277 0.564172
C8 C 1.5494(2) 0.79703(19) 0.39397(11)
C9 C 1.7758(3) 0.8735(3) 0.37954(12)
H9 H 1.887131 0.883597 0.433440
C10 C 1.6824(3) 0.9136(2) 0.21571(12)
H10 H 1.727591 0.956196 0.155005
C11 C 1.4536(3) 0.8340(2) 0.21979(11)
C12 C 1.3884(3) 0.7767(2) 0.31193(11)
H12 H 1.235363 0.724219 0.318568
C13 C 1.2848(3) 0.8113(3) 0.12852(13)
H13A H 1.356768 0.872865 0.074983
H13B H 1.240686 0.684434 0.107906
H13C H 1.149164 0.862098 0.144321
Cl1 Cl 1.81479(8) 0.72458(7) 1.94351(3)
O1 O 1.1392(2) 0.58009(19) 1.59268(9)
H1 H 1.195081 0.621121 1.542602
N1 N 1.4708(2) 0.73674(17) 1.48606(9)
N2 N 1.8425(3) 0.9335(2) 1.29266(11)
C1 C 1.2994(3) 0.6162(2) 1.67160(11)
C2 C 1.2348(3) 0.5660(2) 1.76514(12)
H2 H 1.083412 0.509655 1.771902
C3 C 1.3919(3) 0.5986(2) 1.84800(12)
H3 H 1.347218 0.564228 1.910400
C4 C 1.6162(3) 0.6826(2) 1.83785(11)
C5 C 1.6853(3) 0.7347(2) 1.74662(11)
H5 H 1.836910 0.791785 1.741151
C6 C 1.5272(2) 0.70181(19) 1.66165(11)
C7 C 1.6044(3) 0.7599(2) 1.56662(11)
H7 H 1.757494 0.816277 1.564172
C8 C 1.5494(2) 0.79703(19) 1.39397(11)
C9 C 1.7758(3) 0.8735(3) 1.37954(12)
H9 H 1.887131 0.883597 1.433440
C10 C 1.6824(3) 0.9136(2) 1.21571(12)
H10 H 1.727591 0.956196 1.155005
C11 C 1.4536(3) 0.8340(2) 1.21979(11)
C12 C 1.3884(3) 0.7767(2) 1.31193(11)
H12 H 1.235363 0.724219 1.318568
C13 C 1.2848(3) 0.8113(3) 1.12852(13)
H13A H 1.356768 0.872865 1.074983
H13B H 1.240686 0.684434 1.107906
H13C H 1.149164 0.862098 1.144321

#END
