
#######################################################################
#
#                 Cambridge Crystallographic Data Centre
#                                CCDC 
#
#######################################################################
#
# If this CIF has been generated from an entry in the Cambridge 
# Structural Database, then it will include bibliographic, chemical, 
# crystal, experimental, refinement or atomic coordinate data resulting 
# from the CCDC's data processing and validation procedures.
#
#######################################################################

data_shelx_CCDC1
_symmetry_cell_setting           triclinic
_symmetry_space_group_name_H-M   'P -1'
_symmetry_Int_Tables_number      2
_space_group_name_Hall           '-P 1'
loop_
_symmetry_equiv_pos_site_id
_symmetry_equiv_pos_as_xyz
1 x,y,z
2 -x,-y,-z
_cell_length_a                   6.1596(4)
_cell_length_b                   7.4634(4)
_cell_length_c                   12.7106(6)
_cell_angle_alpha                77.175(3)
_cell_angle_beta                 81.457(3)
_cell_angle_gamma                78.821(3)
_cell_volume                     555.527
loop_
_atom_site_label
_atom_site_type_symbol
_atom_site_fract_x
_atom_site_fract_y
_atom_site_fract_z
C1 C -0.1422(3) 0.7737(3) -0.10321(15)
C2 C -0.1364(4) 0.7433(3) -0.20668(16)
H2 H -0.266762 0.774051 -0.240158
C3 C 0.0579(4) 0.6684(3) -0.26182(16)
H3 H 0.058234 0.650085 -0.331874
C4 C 0.2527(3) 0.6205(3) -0.21230(14)
C5 C 0.2491(3) 0.6476(3) -0.10805(15)
H5 H 0.379942 0.614735 -0.074951
C6 C 0.0547(3) 0.7228(3) -0.05140(14)
C7 C 0.0547(3) 0.7459(3) 0.05834(14)
H7 H 0.186232 0.709078 0.090790
C8 C -0.1300(3) 0.8349(3) 0.22063(14)
C9 C -0.3362(4) 0.9015(3) 0.26911(16)
H9 H -0.454951 0.930474 0.227451
C10 C -0.2060(4) 0.8854(3) 0.42908(16)
H10 H -0.230265 0.901729 0.500592
C11 C 0.0051(4) 0.8193(4) 0.38843(17)
H11 H 0.120999 0.792836 0.431702
C12 C 0.0456(4) 0.7921(3) 0.28320(16)
H12 H 0.188201 0.745838 0.254733
C13 C 0.4770(4) 0.5614(4) -0.37504(17)
H13A H 0.389926 0.481105 -0.393144
H13B H 0.630599 0.526399 -0.400931
H13C H 0.425336 0.688130 -0.408408
N1 N -0.1219(3) 0.8158(2) 0.11228(12)
N2 N -0.3789(3) 0.9277(3) 0.37109(14)
O1 O -0.3361(2) 0.8526(3) -0.05460(12)
H1 H -0.318801 0.860379 0.006869
O2 O 0.4550(2) 0.5443(2) -0.26090(11)
C1 C -0.1422(3) 0.7737(3) 0.89679(15)
C2 C -0.1364(4) 0.7433(3) 0.79332(16)
H2 H -0.266762 0.774051 0.759842
C3 C 0.0579(4) 0.6684(3) 0.73818(16)
H3 H 0.058234 0.650085 0.668126
C4 C 0.2527(3) 0.6205(3) 0.78770(14)
C5 C 0.2491(3) 0.6476(3) 0.89195(15)
H5 H 0.379942 0.614735 0.925049
C6 C 0.0547(3) 0.7228(3) 0.94860(14)
C7 C 0.0547(3) 0.7459(3) 1.05834(14)
H7 H 0.186232 0.709078 1.090790
C8 C -0.1300(3) 0.8349(3) 1.22063(14)
C9 C -0.3362(4) 0.9015(3) 1.26911(16)
H9 H -0.454951 0.930474 1.227451
C10 C -0.2060(4) 0.8854(3) 1.42908(16)
H10 H -0.230265 0.901729 1.500592
C11 C 0.0051(4) 0.8193(4) 1.38843(17)
H11 H 0.120999 0.792836 1.431702
C12 C 0.0456(4) 0.7921(3) 1.28320(16)
H12 H 0.188201 0.745838 1.254733
C13 C 0.4770(4) 0.5614(4) 0.62496(17)
H13A H 0.389926 0.481105 0.606856
H13B H 0.630599 0.526399 0.599069
H13C H 0.425336 0.688130 0.591592
N1 N -0.1219(3) 0.8158(2) 1.11228(12)
N2 N -0.3789(3) 0.9277(3) 1.37109(14)
O1 O -0.3361(2) 0.8526(3) 0.94540(12)
H1 H -0.318801 0.860379 1.006869
O2 O 0.4550(2) 0.5443(2) 0.73910(11)
C1 C 0.8578(3) 0.7737(3) -0.10321(15)
C2 C 0.8636(4) 0.7433(3) -0.20668(16)
H2 H 0.733238 0.774051 -0.240158
C3 C 1.0579(4) 0.6684(3) -0.26182(16)
H3 H 1.058234 0.650085 -0.331874
C4 C 1.2527(3) 0.6205(3) -0.21230(14)
C5 C 1.2491(3) 0.6476(3) -0.10805(15)
H5 H 1.379942 0.614735 -0.074951
C6 C 1.0547(3) 0.7228(3) -0.05140(14)
C7 C 1.0547(3) 0.7459(3) 0.05834(14)
H7 H 1.186232 0.709078 0.090790
C8 C 0.8700(3) 0.8349(3) 0.22063(14)
C9 C 0.6638(4) 0.9015(3) 0.26911(16)
H9 H 0.545049 0.930474 0.227451
C10 C 0.7940(4) 0.8854(3) 0.42908(16)
H10 H 0.769735 0.901729 0.500592
C11 C 1.0051(4) 0.8193(4) 0.38843(17)
H11 H 1.120999 0.792836 0.431702
C12 C 1.0456(4) 0.7921(3) 0.28320(16)
H12 H 1.188201 0.745838 0.254733
C13 C 1.4770(4) 0.5614(4) -0.37504(17)
H13A H 1.389926 0.481105 -0.393144
H13B H 1.630599 0.526399 -0.400931
H13C H 1.425336 0.688130 -0.408408
N1 N 0.8781(3) 0.8158(2) 0.11228(12)
N2 N 0.6211(3) 0.9277(3) 0.37109(14)
O1 O 0.6639(2) 0.8526(3) -0.05460(12)
H1 H 0.681199 0.860379 0.006869
O2 O 1.4550(2) 0.5443(2) -0.26090(11)
C1 C 0.8578(3) 0.7737(3) 0.89679(15)
C2 C 0.8636(4) 0.7433(3) 0.79332(16)
H2 H 0.733238 0.774051 0.759842
C3 C 1.0579(4) 0.6684(3) 0.73818(16)
H3 H 1.058234 0.650085 0.668126
C4 C 1.2527(3) 0.6205(3) 0.78770(14)
C5 C 1.2491(3) 0.6476(3) 0.89195(15)
H5 H 1.379942 0.614735 0.925049
C6 C 1.0547(3) 0.7228(3) 0.94860(14)
C7 C 1.0547(3) 0.7459(3) 1.05834(14)
H7 H 1.186232 0.709078 1.090790
C8 C 0.8700(3) 0.8349(3) 1.22063(14)
C9 C 0.6638(4) 0.9015(3) 1.26911(16)
H9 H 0.545049 0.930474 1.227451
C10 C 0.7940(4) 0.8854(3) 1.42908(16)
H10 H 0.769735 0.901729 1.500592
C11 C 1.0051(4) 0.8193(4) 1.38843(17)
H11 H 1.120999 0.792836 1.431702
C12 C 1.0456(4) 0.7921(3) 1.28320(16)
H12 H 1.188201 0.745838 1.254733
C13 C 1.4770(4) 0.5614(4) 0.62496(17)
H13A H 1.389926 0.481105 0.606856
H13B H 1.630599 0.526399 0.599069
H13C H 1.425336 0.688130 0.591592
N1 N 0.8781(3) 0.8158(2) 1.11228(12)
N2 N 0.6211(3) 0.9277(3) 1.37109(14)
O1 O 0.6639(2) 0.8526(3) 0.94540(12)
H1 H 0.681199 0.860379 1.006869
O2 O 1.4550(2) 0.5443(2) 0.73910(11)
C1 C 1.1422(3) 0.2263(3) 1.10321(15)
C2 C 1.1364(4) 0.2567(3) 1.20668(16)
H2 H 1.266762 0.225949 1.240158
C3 C 0.9421(4) 0.3316(3) 1.26182(16)
H3 H 0.941766 0.349915 1.331874
C4 C 0.7473(3) 0.3795(3) 1.21230(14)
C5 C 0.7509(3) 0.3524(3) 1.10805(15)
H5 H 0.620058 0.385265 1.074951
C6 C 0.9453(3) 0.2772(3) 1.05140(14)
C7 C 0.9453(3) 0.2541(3) 0.94166(14)
H7 H 0.813768 0.290922 0.909210
C8 C 1.1300(3) 0.1651(3) 0.77937(14)
C9 C 1.3362(4) 0.0985(3) 0.73089(16)
H9 H 1.454951 0.069526 0.772549
C10 C 1.2060(4) 0.1146(3) 0.57092(16)
H10 H 1.230265 0.098271 0.499408
C11 C 0.9949(4) 0.1807(4) 0.61157(17)
H11 H 0.879001 0.207164 0.568298
C12 C 0.9544(4) 0.2079(3) 0.71680(16)
H12 H 0.811799 0.254162 0.745267
C13 C 0.5230(4) 0.4386(4) 1.37504(17)
H13A H 0.610074 0.518895 1.393144
H13B H 0.369401 0.473601 1.400931
H13C H 0.574664 0.311870 1.408408
N1 N 1.1219(3) 0.1842(2) 0.88772(12)
N2 N 1.3789(3) 0.0723(3) 0.62891(14)
O1 O 1.3361(2) 0.1474(3) 1.05460(12)
H1 H 1.318801 0.139621 0.993131
O2 O 0.5450(2) 0.4557(2) 1.26090(11)
C1 C 1.1422(3) 1.2263(3) 1.10321(15)
C2 C 1.1364(4) 1.2567(3) 1.20668(16)
H2 H 1.266762 1.225949 1.240158
C3 C 0.9421(4) 1.3316(3) 1.26182(16)
H3 H 0.941766 1.349915 1.331874
C4 C 0.7473(3) 1.3795(3) 1.21230(14)
C5 C 0.7509(3) 1.3524(3) 1.10805(15)
H5 H 0.620058 1.385265 1.074951
C6 C 0.9453(3) 1.2772(3) 1.05140(14)
C7 C 0.9453(3) 1.2541(3) 0.94166(14)
H7 H 0.813768 1.290922 0.909210
C8 C 1.1300(3) 1.1651(3) 0.77937(14)
C9 C 1.3362(4) 1.0985(3) 0.73089(16)
H9 H 1.454951 1.069526 0.772549
C10 C 1.2060(4) 1.1146(3) 0.57092(16)
H10 H 1.230265 1.098271 0.499408
C11 C 0.9949(4) 1.1807(4) 0.61157(17)
H11 H 0.879001 1.207164 0.568298
C12 C 0.9544(4) 1.2079(3) 0.71680(16)
H12 H 0.811799 1.254162 0.745267
C13 C 0.5230(4) 1.4386(4) 1.37504(17)
H13A H 0.610074 1.518895 1.393144
H13B H 0.369401 1.473601 1.400931
H13C H 0.574664 1.311870 1.408408
N1 N 1.1219(3) 1.1842(2) 0.88772(12)
N2 N 1.3789(3) 1.0723(3) 0.62891(14)
O1 O 1.3361(2) 1.1474(3) 1.05460(12)
H1 H 1.318801 1.139621 0.993131
O2 O 0.5450(2) 1.4557(2) 1.26090(11)

#END
